
     RDKit          3D

 51 51  0  0  0  0  0  0  0  0999 V2000
   -1.3850   30.5520   22.4640 C   0  0  0  0  0  0  0  0  0  0  0  0
   -2.4560   29.6990   22.9610 C   0  0  0  0  0  0  0  0  0  0  0  0
   -2.8150   28.6040   21.9250 C   0  0  1  0  0  0  0  0  0  0  0  0
   -1.6460   27.6780   21.5070 C   0  0  0  0  0  0  0  0  0  0  0  0
   -1.7950   26.6720   20.3490 C   0  0  0  0  0  0  0  0  0  0  0  0
   -1.8480   27.4200   18.9930 C   0  0  0  0  0  0  0  0  0  0  0  0
   -0.5380   25.8050   20.2770 C   0  0  0  0  0  0  0  0  0  0  0  0
   -3.9840   27.8500   22.3950 C   0  0  0  0  0  0  0  0  0  0  0  0
   -6.3010   27.1380   22.0590 C   0  0  2  0  0  0  0  0  0  0  0  0
   -6.4320   25.7800   21.5310 C   0  0  0  0  0  0  0  0  0  0  0  0
   -6.9760   23.5280   22.0790 C   0  0  0  0  0  0  0  0  0  0  0  0
   -7.5580   27.8650   21.5540 C   0  0  0  0  0  0  0  0  0  0  0  0
   -7.7780   29.1720   22.1900 C   0  0  0  0  0  0  0  0  0  0  0  0
   -7.4810   30.3530   21.5530 C   0  0  0  0  0  0  0  0  0  0  0  0
   -7.6900   31.5700   22.1720 C   0  0  0  0  0  0  0  0  0  0  0  0
   -8.1990   31.5970   23.4700 C   0  0  0  0  0  0  0  0  0  0  0  0
   -8.4790   30.4520   24.1450 C   0  0  0  0  0  0  0  0  0  0  0  0
   -8.2810   29.2580   23.4830 C   0  0  0  0  0  0  0  0  0  0  0  0
   -0.1510   30.5060   22.9860 N   0  0  0  0  0  0  0  0  0  0  0  0
   -5.1290   27.8230   21.6570 N   0  0  0  0  0  0  0  0  0  0  0  0
   -6.7760   24.8860   22.4380 N   0  0  0  0  0  0  0  0  0  0  0  0
    0.8610   31.1850   22.5810 O   0  0  0  0  0  0  0  0  0  0  0  0
   -1.6560   31.3070   21.5320 O   0  0  0  0  0  0  0  0  0  0  0  0
   -3.9210   27.2370   23.4660 O   0  0  0  0  0  0  0  0  0  0  0  0
   -6.2180   25.5760   20.3170 O   0  0  0  0  0  0  0  0  0  0  0  0
   -2.1527   29.2331   23.9066 H   0  0  0  0  0  0  0  0  0  0  0  0
   -3.3318   30.3197   23.1875 H   0  0  0  0  0  0  0  0  0  0  0  0
   -3.1175   29.1372   21.0128 H   0  0  0  0  0  0  0  0  0  0  0  0
   -0.7730   28.3037   21.2814 H   0  0  0  0  0  0  0  0  0  0  0  0
   -1.3632   27.1061   22.4028 H   0  0  0  0  0  0  0  0  0  0  0  0
   -2.6845   26.0475   20.4791 H   0  0  0  0  0  0  0  0  0  0  0  0
   -2.7400   28.0522   18.9406 H   0  0  0  0  0  0  0  0  0  0  0  0
   -0.9701   28.0588   18.8473 H   0  0  0  0  0  0  0  0  0  0  0  0
   -1.8986   26.7102   18.1603 H   0  0  0  0  0  0  0  0  0  0  0  0
   -0.4162   25.2274   21.1998 H   0  0  0  0  0  0  0  0  0  0  0  0
   -0.6022   25.0895   19.4499 H   0  0  0  0  0  0  0  0  0  0  0  0
    0.3677   26.4056   20.1362 H   0  0  0  0  0  0  0  0  0  0  0  0
   -6.3218   27.1206   23.1563 H   0  0  0  0  0  0  0  0  0  0  0  0
   -7.5201   23.0266   22.8831 H   0  0  0  0  0  0  0  0  0  0  0  0
   -7.5469   23.4541   21.1487 H   0  0  0  0  0  0  0  0  0  0  0  0
   -6.0030   23.0476   21.9428 H   0  0  0  0  0  0  0  0  0  0  0  0
   -7.5112   27.9873   20.4618 H   0  0  0  0  0  0  0  0  0  0  0  0
   -8.4523   27.2473   21.7241 H   0  0  0  0  0  0  0  0  0  0  0  0
   -7.0671   30.3482   20.5462 H   0  0  0  0  0  0  0  0  0  0  0  0
   -7.4444   32.4969   21.6612 H   0  0  0  0  0  0  0  0  0  0  0  0
   -8.3450   32.5604   23.9543 H   0  0  0  0  0  0  0  0  0  0  0  0
   -8.8558   30.4729   25.1614 H   0  0  0  0  0  0  0  0  0  0  0  0
   -8.5172   28.3401   24.0218 H   0  0  0  0  0  0  0  0  0  0  0  0
    0.0391   29.8798   23.7573 H   0  0  0  0  0  0  0  0  0  0  0  0
   -5.0855   28.1874   20.7133 H   0  0  0  0  0  0  0  0  0  0  0  0
   -6.7361   25.1220   23.4228 H   0  0  0  0  0  0  0  0  0  0  0  0
  1  2  1  0
  1 19  1  0
  1 23  2  0
  2  3  1  0
  3  4  1  0
  3  8  1  0
  4  5  1  0
  5  6  1  0
  5  7  1  0
  8 20  1  0
  8 24  2  0
  9 10  1  0
  9 12  1  0
  9 20  1  0
 10 21  1  0
 10 25  2  0
 11 21  1  0
 12 13  1  0
 13 14  2  0
 13 18  1  0
 14 15  1  0
 15 16  2  0
 16 17  1  0
 17 18  2  0
 19 22  1  0
  2 26  1  0
  2 27  1  0
  3 28  1  6
  4 29  1  0
  4 30  1  0
  5 31  1  0
  6 32  1  0
  6 33  1  0
  6 34  1  0
  7 35  1  0
  7 36  1  0
  7 37  1  0
  9 38  1  1
 11 39  1  0
 11 40  1  0
 11 41  1  0
 12 42  1  0
 12 43  1  0
 14 44  1  0
 15 45  1  0
 16 46  1  0
 17 47  1  0
 18 48  1  0
 19 49  1  0
 20 50  1  0
 21 51  1  0
M  CHG  1  22  -1
M  END

$$$$
