@<TRIPOS>MOLECULE
PLH
   51    51     1     0     0
SMALL
rc


@<TRIPOS>ATOM
1 C1 -1.3850 30.5520 22.4640 c 1 PLH 0.000000
2 C2 -2.4560 29.6990 22.9610 c3 1 PLH 0.000000
3 C3 -2.8150 28.6040 21.9250 c3 1 PLH 0.000000
4 C4 -1.6460 27.6780 21.5070 c3 1 PLH 0.000000
5 C5 -1.7950 26.6720 20.3490 c3 1 PLH 0.000000
6 C6 -1.8480 27.4200 18.9930 c3 1 PLH 0.000000
7 C7 -0.5380 25.8050 20.2770 c3 1 PLH 0.000000
8 C8 -3.9840 27.8500 22.3950 c 1 PLH 0.000000
9 C9 -6.3010 27.1380 22.0590 c3 1 PLH 0.000000
10 C10 -6.4320 25.7800 21.5310 c 1 PLH 0.000000
11 C11 -6.9760 23.5280 22.0790 c3 1 PLH 0.000000
12 C12 -7.5580 27.8650 21.5540 c3 1 PLH 0.000000
13 C13 -7.7780 29.1720 22.1900 ca 1 PLH 0.000000
14 C14 -7.4810 30.3530 21.5530 ca 1 PLH 0.000000
15 C15 -7.6900 31.5700 22.1720 ca 1 PLH 0.000000
16 C16 -8.1990 31.5970 23.4700 ca 1 PLH 0.000000
17 C17 -8.4790 30.4520 24.1450 ca 1 PLH 0.000000
18 C18 -8.2810 29.2580 23.4830 ca 1 PLH 0.000000
19 N1 -0.1510 30.5060 22.9860 ns 1 PLH 0.000000
20 N2 -5.1290 27.8230 21.6570 ns 1 PLH 0.000000
21 N3 -6.7760 24.8860 22.4380 ns 1 PLH 0.000000
22 O1 0.8610 31.1850 22.5810 o 1 PLH -1.000000
23 O2 -1.6560 31.3070 21.5320 o 1 PLH 0.000000
24 O3 -3.9210 27.2370 23.4660 o 1 PLH 0.000000
25 O4 -6.2180 25.5760 20.3170 o 1 PLH 0.000000
26 H1 -2.1530 29.2330 23.9070 hc 1 PLH 0.000000
27 H2 -3.3320 30.3200 23.1880 hc 1 PLH 0.000000
28 H3 -3.1180 29.1370 21.0130 hc 1 PLH 0.000000
29 H4 -0.7730 28.3040 21.2810 hc 1 PLH 0.000000
30 H5 -1.3630 27.1060 22.4030 hc 1 PLH 0.000000
31 H6 -2.6840 26.0470 20.4790 hc 1 PLH 0.000000
32 H7 -2.7400 28.0520 18.9410 hc 1 PLH 0.000000
33 H8 -0.9700 28.0590 18.8470 hc 1 PLH 0.000000
34 H9 -1.8990 26.7100 18.1600 hc 1 PLH 0.000000
35 H10 -0.4160 25.2270 21.2000 hc 1 PLH 0.000000
36 H11 -0.6020 25.0900 19.4500 hc 1 PLH 0.000000
37 H12 0.3680 26.4060 20.1360 hc 1 PLH 0.000000
38 H13 -6.3220 27.1210 23.1560 h1 1 PLH 0.000000
39 H14 -7.5200 23.0270 22.8830 h1 1 PLH 0.000000
40 H15 -7.5470 23.4540 21.1490 h1 1 PLH 0.000000
41 H16 -6.0030 23.0480 21.9430 h1 1 PLH 0.000000
42 H17 -7.5110 27.9870 20.4620 hc 1 PLH 0.000000
43 H18 -8.4520 27.2470 21.7240 hc 1 PLH 0.000000
44 H19 -7.0670 30.3480 20.5460 ha 1 PLH 0.000000
45 H20 -7.4440 32.4970 21.6610 ha 1 PLH 0.000000
46 H21 -8.3450 32.5600 23.9540 ha 1 PLH 0.000000
47 H22 -8.8560 30.4730 25.1610 ha 1 PLH 0.000000
48 H23 -8.5170 28.3400 24.0220 ha 1 PLH 0.000000
49 H24 0.0390 29.8800 23.7570 hn 1 PLH 0.000000
50 H25 -5.0850 28.1870 20.7130 hn 1 PLH 0.000000
51 H26 -6.7360 25.1220 23.4230 hn 1 PLH 0.000000
@<TRIPOS>BOND
     1     1     2 1   
     2     1    19 1   
     3     1    23 2   
     4     2     3 1   
     5     3     4 1   
     6     3     8 1   
     7     4     5 1   
     8     5     6 1   
     9     5     7 1   
    10     8    20 1   
    11     8    24 2   
    12     9    10 1   
    13     9    12 1   
    14     9    20 1   
    15    10    21 1   
    16    10    25 2   
    17    11    21 1   
    18    12    13 1   
    19    13    14 ar  
    20    13    18 ar  
    21    14    15 ar  
    22    15    16 ar  
    23    16    17 ar  
    24    17    18 ar  
    25    19    22 1   
    26     2    26 1   
    27     2    27 1   
    28     3    28 1   
    29     4    29 1   
    30     4    30 1   
    31     5    31 1   
    32     6    32 1   
    33     6    33 1   
    34     6    34 1   
    35     7    35 1   
    36     7    36 1   
    37     7    37 1   
    38     9    38 1   
    39    11    39 1   
    40    11    40 1   
    41    11    41 1   
    42    12    42 1   
    43    12    43 1   
    44    14    44 1   
    45    15    45 1   
    46    16    46 1   
    47    17    47 1   
    48    18    48 1   
    49    19    49 1   
    50    20    50 1   
    51    21    51 1   
@<TRIPOS>SUBSTRUCTURE
     1 PLH         1 TEMP              0 ****  ****    0 ROOT
